Circuit: * C:\Users\jack\OneDrive\Documents\GitHub\BuckLinReg_5V\ZenerSim.asc

.OP point found by inspection.
.step rvar=390
.step rvar=442
.step rvar=470

Date: Fri Mar 26 10:53:28 2021
Total elapsed time: 0.039 seconds.

tnom = 27
temp = 27
method = modified trap
totiter = 2047
traniter = 2047
tranpoints = 1023
accept = 1023
rejected = 0
matrix size = 5
fillins = 0
solver = Normal
Matrix Compiler1: 150 bytes object code size  0.0/0.0/[0.0]
Matrix Compiler2: 321 bytes object code size  2.1/0.1/[0.1]

